Using SPARSE 1.3 as Direct Linear Solver
Using SPARSE 1.3 as Direct Linear Solver

Note: No compatibility mode selected!


Circuit: simulation of the cs stage designed with the corresponding jupyter notebook

Doing analysis at TEMP = 27.000000 and TNOM = 27.000000


No. of Data Rows : 1
ASCII raw file "./Simulations/pmos/Optimization for GBW/CS_GBW_nqs.ac.op"
Doing analysis at TEMP = 27.000000 and TNOM = 27.000000


No. of Data Rows : 607
adc                 =  4.667882e+01 at=  1.000000e+04
gbw                 =  9.994685e+07
fc                  =  4.424568e+05
fz                  =  1.878338e+08
Note: Simulation executed from .control section 
